%chk=PATH_TO_SAVE_CHK_FILE.chk
%nproc=52
# opt=calcfc freq b3lyp/6-311++g(d,p) em=GD3 pop=(nbo,savenbo) SCRF=(SMD,Solvent=Generic,Read) geom=connectivity

DME-DME

0 1
 C                 -0.39504504    0.55124782   -0.01960807
 H                 -0.99004504    0.30124782    0.87139193
 H                 -0.99104504    0.29924782   -0.90860807
 C                  0.89495496   -0.24875218   -0.01960807
 H                  0.93495496   -0.89375218    0.87039193
 H                  0.93495496   -0.89375218   -0.90960807
 O                  1.97495496    0.67424782   -0.02060807
 O                 -0.04904504    1.92824782   -0.02060807
 C                 -1.18404504    2.78124782   -0.02160807
 H                 -0.81804504    3.80924782   -0.02260807
 H                 -1.80704504    2.62224782   -0.91460807
 H                 -1.80604504    2.62324782    0.87139193
 C                  3.24295496    0.03524782   -0.01960807
 H                  3.37795496   -0.59175218   -0.91260807
 H                  4.00195496    0.82024782   -0.02060807
 H                  3.37695496   -0.59175218    0.87339193

 1 2 1.0 3 1.0 4 1.0 8 1.0
 2
 3
 4 5 1.0 6 1.0 7 1.0
 5
 6
 7 13 1.0
 8 9 1.0
 9 10 1.0 11 1.0 12 1.0
 10
 11
 12
 13 14 1.0 15 1.0 16 1.0
 14
 15
 16

solventname=DME
RSOLV=4.19
EPS=7.2
EpsInf=1.758

$nbo bndidx archive NRT BOAO $end

